  Page 1                                    Fri Aug 30 16:54:05 2024

  ******************************************************************
  *                           E P A N E T                          *
  *                   Hydraulic and Water Quality                  *
  *                   Analysis for Pipe Networks                   *
  *                         Version 2.3                            *
  ******************************************************************
  
  Analysis begun Fri Aug 30 16:54:05 2024

  Analysis ended Fri Aug 30 16:54:17 2024
