  Page 1                                    Thu Aug 29 17:37:02 2024

  ******************************************************************
  *                           E P A N E T                          *
  *                   Hydraulic and Water Quality                  *
  *                   Analysis for Pipe Networks                   *
  *                         Version 2.3                            *
  ******************************************************************
  
  Analysis begun Thu Aug 29 17:37:02 2024

  Analysis ended Thu Aug 29 17:37:17 2024
