  Page 1                                    Mon Jun  3 18:51:51 2024

  ******************************************************************
  *                           E P A N E T                          *
  *                   Hydraulic and Water Quality                  *
  *                   Analysis for Pipe Networks                   *
  *                         Version 2.3                            *
  ******************************************************************
  
  Analysis begun Mon Jun  3 18:51:51 2024

  WARNING: Negative pressures at 0:00:00 hrs.
   
  WARNING: Negative pressures at 1:00:00 hrs.
   
  Analysis ended Mon Jun  3 18:52:00 2024
