  Page 1                                    Fri May 31 18:45:41 2024

  ******************************************************************
  *                           E P A N E T                          *
  *                   Hydraulic and Water Quality                  *
  *                   Analysis for Pipe Networks                   *
  *                         Version 2.3                            *
  ******************************************************************
  
  Analysis begun Fri May 31 18:45:41 2024

  WARNING: Negative pressures at 0:00:00 hrs.
   
  WARNING: Negative pressures at 1:00:00 hrs.
   
  Analysis ended Fri May 31 18:45:44 2024
