  Page 1                                    Mon Sep  2 10:42:15 2024

  ******************************************************************
  *                           E P A N E T                          *
  *                   Hydraulic and Water Quality                  *
  *                   Analysis for Pipe Networks                   *
  *                         Version 2.3                            *
  ******************************************************************
  
  Analysis begun Mon Sep  2 10:42:15 2024

  Analysis ended Mon Sep  2 10:42:31 2024
