  Page 1                                    Fri Aug 30 17:14:27 2024

  ******************************************************************
  *                           E P A N E T                          *
  *                   Hydraulic and Water Quality                  *
  *                   Analysis for Pipe Networks                   *
  *                         Version 2.2                            *
  ******************************************************************
  
  Analysis begun Fri Aug 30 17:14:27 2024

  Analysis ended Fri Aug 30 17:14:27 2024
