  Page 1                                    Fri Jun  7 09:31:33 2024

  ******************************************************************
  *                           E P A N E T                          *
  *                   Hydraulic and Water Quality                  *
  *                   Analysis for Pipe Networks                   *
  *                         Version 2.3                            *
  ******************************************************************
  
  Analysis begun Fri Jun  7 09:31:33 2024

  WARNING: Negative pressures at 0:00:00 hrs.
   
  WARNING: Negative pressures at 1:00:00 hrs.
   
  Analysis ended Fri Jun  7 09:31:41 2024
