  Page 1                                    Tue Jun 11 16:35:00 2024

  ******************************************************************
  *                           E P A N E T                          *
  *                   Hydraulic and Water Quality                  *
  *                   Analysis for Pipe Networks                   *
  *                         Version 2.3                            *
  ******************************************************************
  
  Analysis begun Tue Jun 11 16:35:00 2024

   
  Hydraulic Status:
  -----------------------------------------------------------------------
     0:00:00: Balanced after 4 trials
     0:00:00: Reservoir 1 is emptying
   
  Water Quality Mass Balance (mg)
  ================================
  Initial Mass:       0.00000e+00
  Mass Inflow:        0.00000e+00
  Mass Outflow:       0.00000e+00
  Mass Reacted:       0.00000e+00
  Final Mass:         0.00000e+00
  Mass Ratio:         1.00000
  ================================

  Analysis ended Tue Jun 11 16:35:14 2024
