  Page 1                                    Thu Jun 13 17:22:36 2024

  ******************************************************************
  *                           E P A N E T                          *
  *                   Hydraulic and Water Quality                  *
  *                   Analysis for Pipe Networks                   *
  *                         Version 2.3                            *
  ******************************************************************
  
  Analysis begun Thu Jun 13 17:22:36 2024

  Analysis ended Thu Jun 13 17:23:07 2024
